
.model  dio  d is=p1
.param p2 = 2
r2 a c 10k

