* "include" handling
spice
.options parhier=local
.param dummy1=1
* comment 1

.subckt module a b

.param p1=1.e-12
 
v1 a b dc 1
r1 a c 1k
d1 c b dio 

.include 'test6-2.inc'
* comment 2
.echo param in subckt
.param 

.ends


X1 1 0 module

.echo param in top
.param 

.echo circuit list
.list

.print op v(1)
.echo solution
.op

.end
