* global parameter test
.options parhier=local
.param a='3'

.subckt MODULE1 m1p1 m1p2

.subckt MODULE2 p1 p2
.param b='4'
v1 p1 0 dc 'a'
v2 p2 0 dc 'b'
.ends

xlower m1p1 m1p2 MODULE2

.ends

xmain nd1 nd2 MODULE1


*.list
.print op v(nd*)
*.print  all
.op
.end

