* global parameter test
.options parhier=local
.param a='3'

.subckt MODULE1 p1 p2 p3
.param b='4'
.param c='6'
v1 p1 0 dc 'a'
v2 p2 0 dc 'b'
v3 p3 0 dc 'd'
.ends


x1 nd1 nd2 nd3 MODULE1 d=7

*.list
.print op v(nd*)
*.print  all
.op
.end

