* test a1 - empty model, element with resistance R= ; bmm_semi_hsp


R1  1 0 rmodel r=10
.model rmodel r
v1  1 0 dc 1

.print op  v(r1) I(v1) 
.op 

.end
