* test a1 - empty model, element with resistance tc1 tc2 q/o names, tnom and temp used; bmm_semi_hsp   - ISSUE

.option tnom=25
.temp 50

R1  1 0 rmodel 10 0.02 0 
* dtemp=10
.model rmodel r 
* 10 * (1 + 0.02 * 25) = 15; 1/15 = 0.06667

v1  1 0 dc 1


.print op  v(r1) I(v1) 
.op 

.end
