* test a1 - empty model, element with resistance, like a3, but tc1 and tc2 used - w/o names and with names;
* assumed that they shall override each other - but they are summed. Wrong code in model
* bmm_semi_hsp



R1  1 0 rmodel 10 0.025 0 tc1=0.025 tc2=0 dtemp=10
.model rmodel r 
# 10 * (1 + 0.025 * 10) = 12.5; 1/12.5 = 0.08

v1  1 0 dc 1


.print op  v(r1) I(v1) 
.op 

.end
