spice
* test a1 - empty model, element with resistance, M used; bmm_semi_hsp


R1  1 0 rmodel 10 m=2
.model rmodel r
* r = 10 / 2 = 5; i=1/5 = 0.2
v1  1 0 dc 1

.print op  v(r1) I(v1) 
.op 

.end
