* test b6 - model with rsh, l, w;  element with resistance; bmm_semi_hsp


R1  1 0 rmodel 10
.model rmodel r rsh=10 w=2 l=4
v1  1 0 dc 1
* r=10; i=0.1
.print op  v(r1) I(v1) 
.op 

.end
