spice
* test a1 - empty model, element with resistance, like a3, but tc1 and tc2 names used; bmm_semi_hsp



R1  1 0 rmodel 10 dtemp=10
.model rmodel r  tc1=0.025 tc2=0 
# 10 * (1 + 0.025 * 10) = 12.5; 1/12.5 = 0.08

v1  1 0 dc 1


.print op  v(r1) I(v1) 
.op 

.end
