* parameters of V1 w/o quotes
'parameter test
.param a=1 b=2 c=3 d=4
v1 1 0 dc a ac b  pwl 0 5 0.1 1
r1 1 0 a+b
.print op v(1) i(v1)
.op
.print ac v(1) i(v1)
.ac dec 2 1 10
.end
