* test b6 - model with rsh, l, w;  element with resistance; bmm_semi_hsp

.param rval=10 rsheet=10 wi=2 le=4

R1  1 0 rmodel 'rval' 
.model rmodel r rsh='rsheet' w='wi' l='le'
v1  1 0 dc 1

* r=10; i=0.1

.print op  v(r1) I(v1) 
.op 

.end
