* v source with dc and pwl, dc with number, pwl with numbers

v1 1 0 dc 1 pwl 0 0 10ns 5 
r1 1 0 10k

.print op v(*) i(V*)
.op

.print tran v(*) i(V*)
.tran 0 20ns 1ns

.end
