* sources with dc, ac and pwl, all numbers; ac at the end

v1 1 0 dc 1 pwl 0 0 10ns 5 15ns 2.5  ac 2

r1 1 0 10k


.print op v(*) i(V*)
.op

.print ac v(*) i(V*)
.ac dec 2 1 10

.print tran v(*) i(V*)
.tran 0 20ns 1ns

.end
