* global parameter test
.options parhier=local
.param a=11
.param b=12
.param d=14

.subckt M1 (1 2 3 4)
.param a=21
.param c=23
v1 1 0 dc a
v2 2 0 dc b
v3 3 0 dc c
v4 4 0 dc d
.ends

.subckt M6 (1 2 3 4) 
.param a=61
.param d=64
x1 (1 2 3 4) M1 
.ends

x3 (31 32 33 34) M6
x4 (41 42 43 44) M1 

.print op v(nodes)
.op
.end


* expecting  21 12 23 64(!) 21 12 23 14
* now have   21 12 23 14    21 12 23 14
