* bin test - start with 0, selects bin 0

.model nmos.1 nmos level=1 vto=0.6 lmin=0.1e-6 lmax=1e-6
.model nmos.1 nmos level=1 vto=0.7 lmin=1e-6 lmax=2e-6
.model nmos.2 nmos level=1 vto=0.8 lmin=2e-6 lmax=4e-6
.model nmos.3 nmos level=1 vto=0.9 lmin=4e-6 lmax=8e-6

M1 a1 a2 0 0 NMOS W=8e-6 L=.5e-6  

vdd a1 0 5
vin a2 0 1

.op

.print dc v(a*) i(vdd)
.dc vin 0.5 1.5 .05

